data/ACTIVSg500.aux
DATA (PWCaseInformation, [Selected])
{
"NO "
   <SUBDATA PWCaseHeader>
     //Case Description
     This is a synthetic power system model that does NOT represent the actual grid. It was developed as part of the US ARPA-E Grid 
     Data research project and contains no CEII.
     Reference: A.B. Birchfield, T. Xu, K.M. Gegner, K.S. Shetye, and T.J. Overbye, "Grid Structural Characteristics as Validation 
     Criteria for Synthetic Networks," to appear, IEEE Transactions on Power Systems, 2017.
   </SUBDATA>
}
DATA (Owner, [OwnerNum,OwnerName,DataMaintainerAssign])
{
       1 "1" ""
}
DATA (Substation, [SubNum,SubName,SubID,Latitude,Longitude,DataMaintainerAssign,GICSubGroundOhms,
   GICUsedSubGroundOhms])
{
       1 "WINNSBORO" "1" 34.36999999999999740000 -81.09000000000000340000 ""     4.200000     4.200000
       2 "COLUMBIA 11" "2" 34.14000000000000060000 -80.89000000000000060000 ""     0.160000     0.160000
       3 "SMYRNA" "3" 35.00999999999999800000 -81.39000000000000060000 ""     0.990000     0.990000
       4 "EASTOVER 2" "4" 33.82999999999999830000 -80.62000000000000460000 ""     0.110000     0.110000
       5 "CHAPPELLS 2" "5" 34.18999999999999770000 -81.87000000000000460000 ""     0.094000     0.094000
       6 "PELZER" "6" 34.64000000000000060000 -82.40999999999999660000 ""     0.480000     0.480000
       7 "SENECA 3" "7" 34.78999999999999910000 -82.90000000000000570000 ""     0.820000     0.820000
       8 "MONETTA" "8" 33.81000000000000230000 -81.59000000000000340000 ""     0.290000     0.290000
       9 "LEXINGTON 2" "9" 34.00000000000000000000 -81.26999999999999600000 ""     0.480000     0.480000
      10 "WELLFORD" "10" 34.92999999999999970000 -82.09999999999999430000 ""     4.800000     4.800000
      11 "LAURENS" "11" 34.50000000000000000000 -82.04999999999999720000 ""     0.240000     0.240000
      12 "COLUMBIA 10" "12" 33.92999999999999970000 -80.95000000000000280000 ""     0.120000     0.120000
      13 "WINDSOR" "13" 33.47999999999999690000 -81.51000000000000510000 ""     2.600000     2.600000
      14 "PROSPERITY" "14" 34.14999999999999860000 -81.51000000000000510000 ""     0.300000     0.300000
      15 "NORTH AUGUSTA 2" "15" 33.60999999999999940000 -81.98000000000000400000 ""     0.250000     0.250000
      16 "LANDO" "16" 34.77000000000000310000 -81.01000000000000510000 ""     0.300000     0.300000
      17 "GAFFNEY 3" "17" 35.10999999999999940000 -81.70999999999999380000 ""     0.190000     0.190000
      18 "CLARKS HILL 2" "18" 33.64000000000000060000 -82.10999999999999940000 ""     0.063000     0.063000
      19 "JENKINSVILLE" "19" 34.28999999999999910000 -81.29999999999999720000 ""     0.400000     0.400000
      20 "WOODRUFF" "20" 34.75999999999999800000 -82.04000000000000620000 ""     5.500000     5.500000
      21 "IVA" "21" 34.25999999999999800000 -82.60999999999999940000 ""     0.400000     0.400000
      22 "CAYCE" "22" 33.95000000000000280000 -81.06000000000000230000 ""     0.068000     0.068000
      23 "TROY" "23" 33.96999999999999890000 -82.07999999999999830000 ""     0.750000     0.750000
      24 "SIMPSONVILLE 2" "24" 34.77000000000000310000 -82.23000000000000400000 ""     0.690000     0.690000
      25 "MAYO" "25" 35.07999999999999830000 -81.85999999999999940000 ""     0.220000     0.220000
      26 "BELTON 2" "26" 34.10000000000000140000 -80.79000000000000620000 ""     0.095000     0.095000
      27 "BRADLEY" "27" 34.03999999999999910000 -82.23000000000000400000 ""     0.096000     0.096000
      28 "ENOREE" "28" 34.64999999999999860000 -81.90000000000000570000 ""     0.130000     0.130000
      29 "HONEA PATH 2" "29" 34.53000000000000110000 -82.37000000000000460000 ""     0.470000     0.470000
      30 "SPRINGFIELD" "30" 33.50999999999999800000 -81.29999999999999720000 ""     0.650000     0.650000
      31 "EDGEMOOR" "31" 34.79999999999999720000 -80.98000000000000400000 ""     0.140000     0.140000
      32 "NEWRY" "32" 34.72999999999999690000 -82.90999999999999660000 ""     0.390000     0.390000
      33 "CLARKS HILL 1" "33" 33.65999999999999660000 -82.20000000000000280000 ""     0.099000     0.099000
      34 "NEWBERRY" "34" 34.31000000000000230000 -81.62999999999999540000 ""     0.250000     0.250000
      35 "AIKEN 3" "35" 33.64999999999999860000 -81.59999999999999430000 ""     0.050000     0.050000
      36 "ROCK HILL 3" "36" 34.93999999999999770000 -81.03000000000000110000 ""     0.360000     0.360000
      37 "CAMERON" "37" 33.57999999999999830000 -80.65000000000000570000 ""     0.091000     0.091000
      38 "SENECA 2" "38" 34.64000000000000060000 -82.93999999999999770000 ""     0.970000     0.970000
      39 "BLAIR" "39" 34.43999999999999770000 -81.32999999999999830000 ""     0.097000     0.097000
      40 "WALHALLA" "40" 34.78000000000000110000 -83.07999999999999830000 ""     5.700000     5.700000
      41 "ANDERSON 4" "41" 34.46000000000000090000 -82.76000000000000510000 ""     0.035000     0.035000
      42 "PACOLET" "42" 34.89999999999999860000 -81.70999999999999380000 ""     0.290000     0.290000
      43 "ABBEVILLE" "43" 34.17999999999999970000 -82.43000000000000680000 ""     0.032000     0.032000
      44 "AIKEN 2" "44" 33.59000000000000340000 -81.70000000000000280000 ""     0.022000     0.022000
      45 "JOHNSTON" "45" 33.84000000000000340000 -81.79999999999999720000 ""     0.470000     0.470000
      46 "SPARTANBURG 6" "46" 34.89000000000000060000 -81.92000000000000170000 ""     0.770000     0.770000
      47 "GAFFNEY 2" "47" 34.96999999999999890000 -81.59000000000000340000 ""     0.170000     0.170000
      48 "LEESVILLE" "48" 33.92000000000000170000 -81.45000000000000280000 ""     0.290000     0.290000
      49 "LANGLEY" "49" 33.50999999999999800000 -81.85999999999999940000 ""     0.310000     0.310000
      50 "DONALDS" "50" 34.35999999999999940000 -82.34000000000000340000 ""     0.170000     0.170000
      51 "GREENVILLE 7" "51" 34.85000000000000140000 -82.40000000000000570000 ""     0.150000     0.150000
      52 "COLUMBIA 9" "52" 34.03000000000000110000 -80.95999999999999380000 ""     0.180000     0.180000
      53 "SALEM 3" "53" 35.00999999999999800000 -83.00000000000000000000 ""     0.230000     0.230000
      54 "GREENVILLE 6" "54" 34.77000000000000310000 -82.37999999999999540000 ""     0.120000     0.120000
      55 "COWPENS" "55" 35.04999999999999720000 -81.79999999999999720000 ""     0.200000     0.200000
      56 "WESTMINSTER 2" "56" 34.64999999999999860000 -83.15000000000000570000 ""     4.900000     4.900000
      57 "SAINT MATTHEWS" "57" 33.68999999999999770000 -80.79000000000000620000 ""     0.470000     0.470000
      58 "GREENWOOD 2" "58" 34.24000000000000200000 -82.15000000000000570000 ""     0.210000     0.210000
      59 "FINGERVILLE" "59" 35.14000000000000060000 -82.00000000000000000000 ""     0.180000     0.180000
      60 "ROCK HILL 2" "60" 34.96999999999999890000 -81.07999999999999830000 ""     0.290000     0.290000
      61 "YORK 2" "61" 35.04999999999999720000 -81.06999999999999320000 ""    19.900000    19.900000
      62 "CHAPIN" "62" 34.13000000000000260000 -81.34000000000000340000 ""     0.069000     0.069000
      63 "MODOC" "63" 33.75000000000000000000 -82.15000000000000570000 ""     0.330000     0.330000
      64 "SPARTANBURG 5" "64" 34.92999999999999970000 -82.01000000000000510000 ""     0.820000     0.820000
      65 "BOILING SPRINGS" "65" 35.03999999999999910000 -81.98000000000000400000 ""     0.061000     0.061000
      66 "GREENVILLE 5" "66" 34.85999999999999940000 -82.29999999999999720000 ""     0.180000     0.180000
      67 "PELION" "67" 33.75999999999999800000 -81.26999999999999600000 ""     0.210000     0.210000
      68 "GRANITEVILLE" "68" 33.57000000000000030000 -81.85999999999999940000 ""     0.170000     0.170000
      69 "IRMO" "69" 34.14000000000000060000 -81.20999999999999380000 ""     0.400000     0.400000
      70 "SALEM 2" "70" 34.96000000000000090000 -82.90999999999999660000 ""     0.270000     0.270000
      71 "WEST UNION" "71" 34.78000000000000110000 -83.01000000000000510000 ""     2.700000     2.700000
      72 "CROSS HILL" "72" 34.36999999999999740000 -81.95999999999999380000 ""     0.180000     0.180000
      73 "FORT LAWN" "73" 34.71000000000000090000 -80.92000000000000170000 ""     0.190000     0.190000
      74 "NORTH" "74" 33.63000000000000260000 -81.07999999999999830000 ""     0.240000     0.240000
      75 "ANDERSON 3" "75" 34.56000000000000230000 -82.76000000000000510000 ""     0.029000     0.029000
      76 "BLACKSBURG 2" "76" 35.11999999999999740000 -81.46999999999999890000 ""     0.062000     0.062000
      77 "LIBERTY" "77" 34.77000000000000310000 -82.68999999999999770000 ""     0.420000     0.420000
      78 "ELLOREE" "78" 33.53000000000000110000 -80.59000000000000340000 ""     0.180000     0.180000
      79 "WAGENER" "79" 33.65999999999999660000 -81.42000000000000170000 ""     0.940000     0.940000
      80 "TRENTON" "80" 33.68999999999999770000 -81.84999999999999430000 ""     0.710000     0.710000
      81 "BATESBURG" "81" 33.86999999999999740000 -81.54999999999999720000 ""     0.022000     0.022000
      82 "COLUMBIA 8" "82" 34.06000000000000230000 -81.21999999999999890000 ""     0.150000     0.150000
      83 "LITTLE MOUNTAIN" "83" 34.21999999999999890000 -81.29999999999999720000 ""     0.210000     0.210000
      84 "CLINTON" "84" 34.42000000000000170000 -81.81000000000000230000 ""     0.099000     0.099000
      85 "WARRENVILLE" "85" 33.52000000000000310000 -81.82999999999999830000 ""     5.200000     5.200000
      86 "SIMPSONVILLE 1" "86" 34.68999999999999770000 -82.29000000000000620000 ""     0.670000     0.670000
      87 "DUNCAN" "87" 34.85999999999999940000 -82.10999999999999940000 ""     0.170000     0.170000
      88 "NORTH AUGUSTA 1" "88" 33.53000000000000110000 -81.93999999999999770000 ""     0.210000     0.210000
      89 "GREENWOOD 1" "89" 34.14000000000000060000 -82.15000000000000570000 ""     0.180000     0.180000
      90 "BELTON 1" "90" 34.52000000000000310000 -82.48000000000000400000 ""     0.067000     0.067000
      91 "VAUCLUSE" "91" 33.60999999999999940000 -81.81999999999999320000 ""     0.630000     0.630000
      92 "UNION 3" "92" 34.65999999999999660000 -81.45000000000000280000 ""     0.820000     0.820000
      93 "MOUNTAIN REST" "93" 34.85999999999999940000 -83.15999999999999660000 ""     0.240000     0.240000
      94 "PICKENS" "94" 34.92999999999999970000 -82.73000000000000400000 ""     0.490000     0.490000
      95 "WESTMINSTER 1" "95" 34.43999999999999770000 -83.04999999999999720000 ""     3.900000     3.900000
      96 "WEST COLUMBIA 3" "96" 33.93999999999999770000 -81.15000000000000570000 ""     4.400000     4.400000
      97 "WARD" "97" 33.89999999999999860000 -81.70999999999999380000 ""     3.000000     3.000000
      98 "MOORE" "98" 34.86999999999999740000 -82.01999999999999600000 ""     0.360000     0.360000
      99 "WILLISTON" "99" 33.39999999999999860000 -81.42000000000000170000 ""     1.200000     1.200000
     100 "COLUMBIA 7" "100" 33.99000000000000200000 -81.00000000000000000000 ""     0.180000     0.180000
     101 "WATERLOO" "101" 34.34000000000000340000 -82.09000000000000340000 ""     2.900000     2.900000
     102 "BLACKSBURG 1" "102" 35.15999999999999660000 -81.43000000000000680000 ""     0.091000     0.091000
     103 "TAYLORS" "103" 34.99000000000000200000 -82.32999999999999830000 ""     0.630000     0.630000
     104 "GREENVILLE 4" "104" 34.86999999999999740000 -82.35999999999999940000 ""     0.190000     0.190000
     105 "SALEM 1" "105" 34.95000000000000280000 -82.98000000000000400000 ""     0.320000     0.320000
     106 "COLUMBIA 6" "106" 33.97999999999999690000 -81.04000000000000620000 ""     0.110000     0.110000
     107 "AIKEN 1" "107" 33.42000000000000170000 -81.68999999999999770000 ""     0.014000     0.014000
     108 "POMARIA" "108" 34.32999999999999830000 -81.42000000000000170000 ""     0.350000     0.350000
     109 "RIDGE SPRING" "109" 33.78000000000000110000 -81.68000000000000680000 ""     0.390000     0.390000
     110 "GAFFNEY 1" "110" 35.07000000000000030000 -81.60999999999999940000 ""     0.140000     0.140000
     111 "COLUMBIA 5" "111" 33.99000000000000200000 -81.03000000000000110000 ""     0.120000     0.120000
     112 "MARIETTA" "112" 35.14999999999999860000 -82.53000000000000110000 ""     0.320000     0.320000
     113 "ANDERSON 2" "113" 34.50999999999999800000 -82.60999999999999940000 ""     0.022000     0.022000
     114 "SALUDA" "114" 34.03999999999999910000 -81.78000000000000110000 ""     0.610000     0.610000
     115 "FAIR PLAY" "115" 34.52000000000000310000 -83.00000000000000000000 ""     0.130000     0.130000
     116 "HOPKINS" "116" 33.93999999999999770000 -80.68999999999999770000 ""     0.310000     0.310000
     117 "SUNSET" "117" 34.99000000000000200000 -82.84000000000000340000 ""     0.840000     0.840000
     118 "SALLEY" "118" 33.60000000000000140000 -81.31999999999999320000 ""     0.780000     0.780000
     119 "EDGEFIELD" "119" 33.82000000000000030000 -82.00000000000000000000 ""     0.150000     0.150000
     120 "BUFFALO" "120" 34.71000000000000090000 -81.73999999999999490000 ""     0.075000     0.075000
     121 "WARE SHOALS" "121" 34.40999999999999660000 -82.21999999999999890000 ""     5.900000     5.900000
     122 "YORK 1" "122" 34.96999999999999890000 -81.18999999999999770000 ""     6.100000     6.100000
     123 "PIEDMONT" "123" 34.70000000000000280000 -82.45999999999999380000 ""     0.390000     0.390000
     124 "CALHOUN FALLS" "124" 34.00999999999999800000 -82.51999999999999600000 ""     0.067000     0.067000
     125 "ANDERSON 1" "125" 34.43999999999999770000 -82.62000000000000460000 ""     0.042000     0.042000
     126 "JACKSON" "126" 33.29999999999999720000 -81.79999999999999720000 ""     0.250000     0.250000
     127 "CROSS ANCHOR" "127" 34.64999999999999860000 -81.84000000000000340000 ""     0.130000     0.130000
     128 "HICKORY GROVE" "128" 34.95000000000000280000 -81.45000000000000280000 ""     0.430000     0.430000
     129 "GREAT FALLS 2" "129" 34.60000000000000140000 -80.89000000000000060000 ""     0.160000     0.160000
     130 "COLUMBIA 4" "130" 34.09000000000000340000 -80.96999999999999890000 ""     0.130000     0.130000
     131 "MAULDIN" "131" 34.78000000000000110000 -82.29999999999999720000 ""     0.270000     0.270000
     132 "GREENVILLE 3" "132" 34.81000000000000230000 -82.32999999999999830000 ""     0.190000     0.190000
     133 "COLUMBIA 3" "133" 34.04999999999999720000 -81.10999999999999940000 ""     0.160000     0.160000
     134 "PENDLETON" "134" 34.64000000000000060000 -82.71999999999999890000 ""     0.350000     0.350000
     135 "SPARTANBURG 4" "135" 34.95000000000000280000 -81.84000000000000340000 ""     0.720000     0.720000
     136 "CONVERSE" "136" 34.97999999999999690000 -81.82999999999999830000 ""     0.130000     0.130000
     137 "BLACKSTOCK" "137" 34.52000000000000310000 -81.10999999999999940000 ""     0.071000     0.071000
     138 "FORT MILL 3" "138" 35.04999999999999720000 -80.98999999999999490000 ""     0.130000     0.130000
     139 "LANDRUM" "139" 35.14000000000000060000 -82.28000000000000110000 ""     0.210000     0.210000
     140 "SILVERSTREET" "140" 34.22999999999999690000 -81.76999999999999600000 ""     0.550000     0.550000
     141 "ORANGEBURG" "141" 33.57000000000000030000 -80.89000000000000060000 ""     0.480000     0.480000
     142 "GREENVILLE 2" "142" 34.82999999999999830000 -82.45999999999999380000 ""     0.150000     0.150000
     143 "CHAPPELLS 1" "143" 34.17000000000000170000 -81.90000000000000570000 ""     0.082000     0.082000
     144 "RIDGEWAY 2" "144" 34.32999999999999830000 -80.87999999999999540000 ""     0.270000     0.270000
     145 "FOUNTAIN INN" "145" 34.67000000000000170000 -82.18999999999999770000 ""     0.140000     0.140000
     146 "STARR" "146" 34.38000000000000260000 -82.71999999999999890000 ""     0.820000     0.820000
     147 "SPARTANBURG 3" "147" 35.00000000000000000000 -82.12999999999999540000 ""     0.610000     0.610000
     148 "GASTON 2" "148" 33.82999999999999830000 -81.09000000000000340000 ""     0.130000     0.130000
     149 "SIX MILE" "149" 34.82999999999999830000 -82.84999999999999430000 ""     0.620000     0.620000
     150 "SENECA 1" "150" 34.75000000000000000000 -82.93000000000000680000 ""     0.730000     0.730000
     151 "GILBERT" "151" 33.93999999999999770000 -81.37999999999999540000 ""     0.180000     0.180000
     152 "SWANSEA" "152" 33.75000000000000000000 -81.04000000000000620000 ""     0.720000     0.720000
     153 "INMAN" "153" 35.07000000000000030000 -82.06999999999999320000 ""     0.410000     0.410000
     154 "GREAT FALLS 1" "154" 34.57000000000000030000 -80.90999999999999660000 ""     0.160000     0.160000
     155 "WHITMIRE" "155" 34.49000000000000200000 -81.59999999999999430000 ""     2.000000     2.000000
     156 "GRAY COURT" "156" 34.59000000000000340000 -82.12000000000000460000 ""     0.120000     0.120000
     157 "WILLIAMSTON 2" "157" 34.63000000000000260000 -82.54999999999999720000 ""     3.800000     3.800000
     158 "CLEMSON" "158" 34.67999999999999970000 -82.84000000000000340000 ""     0.088000     0.088000
     159 "BEECH ISLAND 2" "159" 33.45000000000000280000 -81.85999999999999940000 ""     0.091000     0.091000
     160 "CLOVER" "160" 35.10999999999999940000 -81.21999999999999890000 ""     0.070000     0.070000
     161 "NINETY SIX" "161" 34.10999999999999940000 -81.98000000000000400000 ""     0.470000     0.470000
     162 "MC CONNELLS" "162" 34.85999999999999940000 -81.23999999999999490000 ""     0.390000     0.390000
     163 "BEECH ISLAND 1" "163" 33.43999999999999770000 -81.90999999999999660000 ""     0.069000     0.069000
     164 "GADSDEN" "164" 33.79999999999999720000 -80.73999999999999490000 ""     0.150000     0.150000
     165 "TRAVELERS REST" "165" 35.03000000000000110000 -82.48999999999999490000 ""     0.710000     0.710000
     166 "DUE WEST" "166" 34.29999999999999720000 -82.43000000000000680000 ""     0.120000     0.120000
     167 "BLYTHEWOOD" "167" 34.20000000000000280000 -81.00000000000000000000 ""     0.091000     0.091000
     168 "ROCK HILL 1" "168" 34.89000000000000060000 -81.01999999999999600000 ""     0.260000     0.260000
     169 "HODGES" "169" 34.31000000000000230000 -82.23000000000000400000 ""     0.390000     0.390000
     170 "CHESNEE 2" "170" 35.10999999999999940000 -81.96999999999999890000 ""     0.062000     0.062000
     171 "WILLIAMSTON 1" "171" 34.60000000000000140000 -82.43999999999999770000 ""     5.800000     5.800000
     172 "EASLEY 2" "172" 34.78000000000000110000 -82.56000000000000230000 ""     0.180000     0.180000
     173 "UNION 2" "173" 34.67999999999999970000 -81.60999999999999940000 ""     0.970000     0.970000
     174 "ARCADIA" "174" 34.96999999999999890000 -81.90999999999999660000 ""     0.040000     0.040000
     175 "CATAWBA" "175" 34.82999999999999830000 -80.90999999999999660000 ""     0.092000     0.092000
     176 "GASTON 1" "176" 33.86999999999999740000 -81.01999999999999600000 ""     0.190000     0.190000
     177 "EASTOVER 1" "177" 33.89000000000000060000 -80.64000000000000060000 ""     0.180000     0.180000
     178 "FORT MILL 2" "178" 35.00999999999999800000 -80.93000000000000680000 ""     0.190000     0.190000
     179 "CAMPOBELLO" "179" 35.11999999999999740000 -82.12999999999999540000 ""     0.095000     0.095000
     180 "EASLEY 1" "180" 34.88000000000000260000 -82.57999999999999830000 ""     0.130000     0.130000
     181 "UNION 1" "181" 34.71999999999999890000 -81.65000000000000570000 ""     0.730000     0.730000
     182 "JONESVILLE" "182" 34.82999999999999830000 -81.65000000000000570000 ""     0.410000     0.410000
     183 "CHESNEE 1" "183" 35.13000000000000260000 -81.90999999999999660000 ""     0.075000     0.075000
     184 "NORRIS" "184" 34.75999999999999800000 -82.76000000000000510000 ""     0.440000     0.440000
     185 "CLEVELAND" "185" 35.07999999999999830000 -82.62999999999999540000 ""     0.090000     0.090000
     186 "GREER 2" "186" 35.02000000000000310000 -82.28000000000000110000 ""     0.300000     0.300000
     187 "CENTRAL" "187" 34.74000000000000200000 -82.79999999999999720000 ""     0.060000     0.060000
     188 "SPARTANBURG 2" "188" 34.88000000000000260000 -81.84000000000000340000 ""     0.780000     0.780000
     189 "LONG CREEK" "189" 34.75999999999999800000 -83.28000000000000110000 ""     0.250000     0.250000
     190 "GREENVILLE 1" "190" 34.92000000000000170000 -82.43999999999999770000 ""     0.160000     0.160000
     191 "PEAK" "191" 34.24000000000000200000 -81.32999999999999830000 ""     0.440000     0.440000
     192 "COLUMBIA 2" "192" 34.03000000000000110000 -81.00000000000000000000 ""     0.140000     0.140000
     193 "ROEBUCK" "193" 34.78000000000000110000 -81.84999999999999430000 ""     0.490000     0.490000
     194 "SHARON" "194" 34.75999999999999800000 -81.46999999999999890000 ""     0.940000     0.940000
     195 "RIDGEWAY 1" "195" 34.34000000000000340000 -80.70000000000000280000 ""     0.250000     0.250000
     196 "WEST COLUMBIA 2" "196" 33.90999999999999660000 -81.07999999999999830000 ""     3.400000     3.400000
     197 "WEST COLUMBIA 1" "197" 34.00000000000000000000 -81.09999999999999430000 ""     3.400000     3.400000
     198 "TOWNVILLE" "198" 34.53000000000000110000 -82.87000000000000460000 ""     0.880000     0.880000
     199 "GREER 1" "199" 34.89999999999999860000 -82.26000000000000510000 ""     0.340000     0.340000
     200 "PLUM BRANCH" "200" 33.77000000000000310000 -82.23999999999999490000 ""     0.310000     0.310000
...
}
DATA (Limit_Monitoring_Options_Value, [VariableName,ValueField])
{
"LMS_IgnoreRadial"                 "NO"
}
DATA (LimitSet, [LSName,LSDisabled,DataMaintainerAssign,LSAmpMVA,LSEndMonitor,LSLinePercent,
   LSInterfacePercent,LSLineRateSet,LSInterfaceRateSet,LSLineRateSet:1,
   LSInterfaceRateSet:1,LSPUHigh,LSPULow,LSCtgPUHigh,LSCtgPULow,LSBusHighRateSet,
   LSBusLowRateSet,LSCtgBusHighRateSet,LSCtgBusLowRateSet])
{
"Default" "NO " "" "MVA" "Higher" 100.0000 100.0000 "A" "A" "A" "A" 1.100000 0.900000 1.100000 0.900000 "A" "A" "A" "A"
}
DATA (RatingSetNameBus, [Name,Header,Description])
{
"A" "" ""
"B" "" ""
"C" "" ""
"D" "" ""
}
DATA (RatingSetNameBranch, [Name,Header,Description])
{
"A" "" ""
"B" "" ""
"C" "" ""
"D" "" ""
"E" "" ""
"F" "" ""
"G" "" ""
"H" "" ""
"I" "" ""
"J" "" ""
"K" "" ""
"L" "" ""
"M" "" ""
"N" "" ""
"O" "" ""
}
DATA (RatingSetNameInterface, [Name,Header,Description])
{
"A" "" ""
"B" "" ""
"C" "" ""
"D" "" ""
"E" "" ""
"F" "" ""
"G" "" ""
"H" "" ""
"I" "" ""
"J" "" ""
"K" "" ""
"L" "" ""
"M" "" ""
"N" "" ""
"O" "" ""
}
DATA (Bus, [BusNum,BusName,BusNomVolt,BusSlack,BusB:1,BusG:1,BusPUVolt,BusAngle,
   DCLossMultiplier,AreaNum,ZoneNum,BANumber,OwnerNum,SubNum,Latitude:1,
   Longitude:1,BusMonEle,LSName,BusVoltLim,BusVoltLimLow:1,BusVoltLimLow:2,
   BusVoltLimLow:3,BusVoltLimLow:4,BusVoltLimHigh:1,BusVoltLimHigh:2,
   BusVoltLimHigh:3,BusVoltLimHigh:4,Latitude,Longitude,TopologyBusType,Priority,
   EMSType,EMSDeviceID,DataMaintainerAssign,AllLabels,GICConductance])
{
     1 "WINNSBORO 0"  138.00000000000000000000 "NO " 0.00000000000000000000 0.00000000000000000000 1.02299739442950055000 -44.80791113368284330000 1.00000000000000000000      1      6      1      1 1    34.370000   -81.090000 "YES" "Default" "NO " "" "" "" "" "" "" "" "" "" "" "BusbarSection" 0 "" "" "" "" ""
     2 "WINNSBORO 1"  138.00000000000000000000 "NO " 0.00000000000000000000 0.00000000000000000000 1.02259294643129461000 -44.85749940626862300000 1.00000000000000000000      1      6      1      1 1    34.370000   -81.090000 "YES" "Default" "NO " "" "" "" "" "" "" "" "" "" "" "BusbarSection" 0 "" "" "" "" ""
     3 "COLUMBIA 11 0" 138.00000000000000000000 "NO " 0.00000000000000000000 0.00000000000000000000 1.02040935223963825000 -46.50770299104095070000 1.00000000000000000000      1      6      1      1 2    34.140000   -80.890000 "YES" "Default" "NO " "" "" "" "" "" "" "" "" "" "" "BusbarSection" 0 "" "" "" "" ""
     4 "COLUMBIA 11 1" 138.00000000000000000000 "NO " 0.00000000000000000000 0.00000000000000000000 1.01890680969800940000 -46.67970023049076640000 1.00000000000000000000      1      6      1      1 2    34.140000   -80.890000 "YES" "Default" "NO " "" "" "" "" "" "" "" "" "" "" "BusbarSection" 0 "" "" "" "" ""
     5 "SMYRNA 0"     138.00000000000000000000 "NO " 0.00000000000000000000 0.00000000000000000000 1.03311647823697639000 -25.81160096409512410000 1.00000000000000000000      1      4      2      1 3    35.010000   -81.390000 "YES" "Default" "NO " "" "" "" "" "" "" "" "" "" "" "BusbarSection" 0 "" "" "" "" ""
     6 "SMYRNA 1"     138.00000000000000000000 "NO " 0.00000000000000000000 0.00000000000000000000 1.03308464826487922000 -25.81560331951160240000 1.00000000000000000000      1      4      2      1 3    35.010000   -81.390000 "YES" "Default" "NO " "" "" "" "" "" "" "" "" "" "" "BusbarSection" 0 "" "" "" "" ""
     7 "EASTOVER 2 0" 345.00000000000000000000 "NO " 0.00000000000000000000 0.00000000000000000000 1.03757566691833203000 -41.95877682200605820000 1.00000000000000000000      1      6      1      1 4    33.830000   -80.620000 "YES" "Default" "NO " "" "" "" "" "" "" "" "" "" "" "BusbarSection" 0 "" "" "" "" ""
     8 "EASTOVER 2 1" 138.00000000000000000000 "NO " 0.00000000000000000000 0.00000000000000000000 1.03414456741485861000 -42.99913417746497400000 1.00000000000000000000      1      6      1      1 4    33.830000   -80.620000 "YES" "Default" "NO " "" "" "" "" "" "" "" "" "" "" "BusbarSection" 0 "" "" "" "" ""
     9 "EASTOVER 2 2" 13.80000019073486330000 "NO " 0.00000000000000000000 0.00000000000000000000 1.03999996185309307000 -41.12268945052617400000 1.00000000000000000000      1      6      1      1 4    33.830000   -80.620000 "YES" "Default" "NO " "" "" "" "" "" "" "" "" "" "" "BusbarSection" 0 "" "" "" "" ""
    10 "CHAPPELLS 2 0" 138.00000000000000000000 "NO " 0.00000000000000000000 0.00000000000000000000 1.03451930212424537000 -44.34920213404190290000 1.00000000000000000000      1      5      1      1 5    34.190000   -81.870000 "YES" "Default" "NO " "" "" "" "" "" "" "" "" "" "" "BusbarSection" 0 "" "" "" "" ""
    11 "CHAPPELLS 2 1" 138.00000000000000000000 "NO " 0.00000000000000000000 0.00000000000000000000 1.03449427356275514000 -44.35198273302681570000 1.00000000000000000000      1      5      1      1 5    34.190000   -81.870000 "YES" "Default" "NO " "" "" "" "" "" "" "" "" "" "" "BusbarSection" 0 "" "" "" "" ""
    12 "PELZER 0"     138.00000000000000000000 "NO " 0.00000000000000000000 0.00000000000000000000 1.04094465535084524000 -40.48723691743435890000 1.00000000000000000000      1      2      2      1 6    34.640000   -82.410000 "YES" "Default" "NO " "" "" "" "" "" "" "" "" "" "" "BusbarSection" 0 "" "" "" "" ""
    13 "PELZER 1"     138.00000000000000000000 "NO " 0.00000000000000000000 0.00000000000000000000 1.04064963278771705000 -40.52025419193076770000 1.00000000000000000000      1      2      2      1 6    34.640000   -82.410000 "YES" "Default" "NO " "" "" "" "" "" "" "" "" "" "" "BusbarSection" 0 "" "" "" "" ""
    14 "SENECA 3 0"   345.00000000000000000000 "NO " 0.00000000000000000000 0.00000000000000000000 1.04018782276711219000 -31.69548659798705970000 1.00000000000000000000      1      1      2      1 7    34.790000   -82.900000 "YES" "Default" "NO " "" "" "" "" "" "" "" "" "" "" "BusbarSection" 0 "" "" "" "" ""
    15 "SENECA 3 1"   138.00000000000000000000 "NO " 0.00000000000000000000 0.00000000000000000000 1.03985501914862288000 -33.74904459420837810000 1.00000000000000000000      1      1      2      1 7    34.790000   -82.900000 "YES" "Default" "NO " "" "" "" "" "" "" "" "" "" "" "BusbarSection" 0 "" "" "" "" ""
    16 "SENECA 3 2"   13.80000019073486330000 "NO " 0.00000000000000000000 0.00000000000000000000 1.03999996185303201000 -28.86440078431380840000 1.00000000000000000000      1      1      2      1 7    34.790000   -82.900000 "YES" "Default" "NO " "" "" "" "" "" "" "" "" "" "" "BusbarSection" 0 "" "" "" "" ""
    17 "SENECA 3 3"   13.80000019073486330000 "YES" 0.00000000000000000000 0.00000000000000000000 1.03999996185302734000 -28.30883441763216270000 1.00000000000000000000      1      1      2      1 7    34.790000   -82.900000 "YES" "Default" "NO " "" "" "" "" "" "" "" "" "" "" "BusbarSection" 0 "" "" "" "" ""
    18 "SENECA 3 4"   13.80000019073486330000 "NO " 0.00000000000000000000 0.00000000000000000000 1.03999996185303223000 -27.42285188471990760000 1.00000000000000000000      1      1      2      1 7    34.790000   -82.900000 "YES" "Default" "NO " "" "" "" "" "" "" "" "" "" "" "BusbarSection" 0 "" "" "" "" ""
    19 "MONETTA 0"    138.00000000000000000000 "NO " 0.00000000000000000000 0.00000000000000000000 1.03677065322260398000 -44.96108632165764620000 1.00000000000000000000      1      5      1      1 8    33.810000   -81.590000 "YES" "Default" "NO " "" "" "" "" "" "" "" "" "" "" "BusbarSection" 0 "" "" "" "" ""
    20 "MONETTA 1"    138.00000000000000000000 "NO " 0.00000000000000000000 0.00000000000000000000 1.03672266491759379000 -44.96737580392377250000 1.00000000000000000000      1      5      1      1 8    33.810000   -81.590000 "YES" "Default" "NO " "" "" "" "" "" "" "" "" "" "" "BusbarSection" 0 "" "" "" "" ""
    21 "LEXINGTON 2 0" 138.00000000000000000000 "NO " 0.00000000000000000000 0.00000000000000000000 1.02492721250609087000 -43.81753379085723310000 1.00000000000000000000      1      6      1      1 9    34.000000   -81.270000 "YES" "Default" "NO " "" "" "" "" "" "" "" "" "" "" "BusbarSection" 0 "" "" "" "" ""
    22 "LEXINGTON 2 1" 138.00000000000000000000 "NO " 0.00000000000000000000 0.00000000000000000000 1.02345291709112307000 -43.99044989158247890000 1.00000000000000000000      1      6      1      1 9    34.000000   -81.270000 "YES" "Default" "NO " "" "" "" "" "" "" "" "" "" "" "BusbarSection" 0 "" "" "" "" ""
    23 "WELLFORD 0"   345.00000000000000000000 "NO " 0.00000000000000000000 0.00000000000000000000 1.04013969906724202000 -36.88756365572741910000 1.00000000000000000000      1      3      2      1 10    34.930000   -82.100000 "YES" "Default" "NO " "" "" "" "" "" "" "" "" "" "" "BusbarSection" 0 "" "" "" "" ""
    24 "WELLFORD 1"   138.00000000000000000000 "NO " 0.00000000000000000000 0.00000000000000000000 1.03487973530971078000 -38.41615779877296430000 1.00000000000000000000      1      3      2      1 10    34.930000   -82.100000 "YES" "Default" "NO " "" "" "" "" "" "" "" "" "" "" "BusbarSection" 0 "" "" "" "" ""
    25 "WELLFORD 2"   138.00000000000000000000 "NO " 0.00000000000000000000 0.00000000000000000000 1.03485983374994306000 -38.41857319062182800000 1.00000000000000000000      1      3      2      1 10    34.930000   -82.100000 "YES" "Default" "NO " "" "" "" "" "" "" "" "" "" "" "BusbarSection" 0 "" "" "" "" ""
    26 "WELLFORD 3"   138.00000000000000000000 "NO " 0.00000000000000000000 0.00000000000000000000 1.03469355687338926000 -38.43983418265180770000 1.00000000000000000000      1      3      2      1 10    34.930000   -82.100000 "YES" "Default" "NO " "" "" "" "" "" "" "" "" "" "" "BusbarSection" 0 "" "" "" "" ""
    27 "LAURENS 0"    138.00000000000000000000 "NO " 0.00000000000000000000 0.00000000000000000000 1.07097993847548834000 -41.85032782709471630000 1.00000000000000000000      1      3      2      1 11    34.500000   -82.050000 "YES" "Default" "NO " "" "" "" "" "" "" "" "" "" "" "BusbarSection" 0 "" "" "" "" ""
    28 "LAURENS 1"    138.00000000000000000000 "NO " 0.00000000000000000000 0.00000000000000000000 1.07039422485401858000 -41.91817363816045370000 1.00000000000000000000      1      3      2      1 11    34.500000   -82.050000 "YES" "Default" "NO " "" "" "" "" "" "" "" "" "" "" "BusbarSection" 0 "" "" "" "" ""
    29 "COLUMBIA 10 0" 138.00000000000000000000 "NO " 0.00000000000000000000 0.00000000000000000000 1.02209388737023565000 -46.19211659352423990000 1.00000000000000000000      1      6      1      1 12    33.930000   -80.950000 "YES" "Default" "NO " "" "" "" "" "" "" "" "" "" "" "BusbarSection" 0 "" "" "" "" ""
    30 "COLUMBIA 10 1" 138.00000000000000000000 "NO " 0.00000000000000000000 0.00000000000000000000 1.02105815622490037000 -46.31348673073213010000 1.00000000000000000000      1      6      1      1 12    33.930000   -80.950000 "YES" "Default" "NO " "" "" "" "" "" "" "" "" "" "" "BusbarSection" 0 "" "" "" "" ""
    31 "WINDSOR 0"    138.00000000000000000000 "NO " 0.00000000000000000000 0.00000000000000000000 1.05873140258271792000 -46.49790165907469230000 1.00000000000000000000      1      5      1      1 13    33.480000   -81.510000 "YES" "Default" "NO " "" "" "" "" "" "" "" "" "" "" "BusbarSection" 0 "" "" "" "" ""
    32 "WINDSOR 1"    138.00000000000000000000 "NO " 0.00000000000000000000 0.00000000000000000000 1.05863277677008183000 -46.50920874954697840000 1.00000000000000000000      1      5      1      1 13    33.480000   -81.510000 "YES" "Default" "NO " "" "" "" "" "" "" "" "" "" "" "BusbarSection" 0 "" "" "" "" ""
    33 "PROSPERITY 0" 138.00000000000000000000 "NO " 0.00000000000000000000 0.00000000000000000000 1.02699160240249632000 -45.56521697995827940000 1.00000000000000000000      1      5      1      1 14    34.150000   -81.510000 "YES" "Default" "NO " "" "" "" "" "" "" "" "" "" "" "BusbarSection" 0 "" "" "" "" ""
    34 "PROSPERITY 1" 138.00000000000000000000 "NO " 0.00000000000000000000 0.00000000000000000000 1.02673789155834716000 -45.59461472805499940000 1.00000000000000000000      1      5      1      1 14    34.150000   -81.510000 "YES" "Default" "NO " "" "" "" "" "" "" "" "" "" "" "BusbarSection" 0 "" "" "" "" ""
    35 "NORTH AUGUSTA 2 0" 138.00000000000000000000 "NO " 0.00000000000000000000 0.00000000000000000000 1.04089188287792633000 -45.58079077404267560000 1.00000000000000000000      1      5      1      1 15    33.610000   -81.980000 "YES" "Default" "NO " "" "" "" "" "" "" "" "" "" "" "BusbarSection" 0 "" "" "" "" ""
    36 "NORTH AUGUSTA 2 1" 138.00000000000000000000 "NO " 0.00000000000000000000 0.00000000000000000000 1.04048918484317365000 -45.62656188856510650000 1.00000000000000000000      1      5      1      1 15    33.610000   -81.980000 "YES" "Default" "NO " "" "" "" "" "" "" "" "" "" "" "BusbarSection" 0 "" "" "" "" ""
    37 "LANDO 0"      138.00000000000000000000 "NO " 0.00000000000000000000 0.00000000000000000000 1.02320016118245438000 -30.81847520229057840000 1.00000000000000000000      1      4      2      1 16    34.770000   -81.010000 "YES" "Default" "NO " "" "" "" "" "" "" "" "" "" "" "BusbarSection" 0 "" "" "" "" ""
    38 "LANDO 1"      138.00000000000000000000 "NO " 0.00000000000000000000 0.00000000000000000000 1.02319882022543029000 -30.81865161209522340000 1.00000000000000000000      1      4      2      1 16    34.770000   -81.010000 "YES" "Default" "NO " "" "" "" "" "" "" "" "" "" "" "BusbarSection" 0 "" "" "" "" ""
    39 "GAFFNEY 3 0"  345.00000000000000000000 "NO " 0.00000000000000000000 0.00000000000000000000 1.04047277678845163000 -37.02330737884981460000 1.00000000000000000000      1      3      2      1 17    35.110000   -81.710000 "YES" "Default" "NO " "" "" "" "" "" "" "" "" "" "" "BusbarSection" 0 "" "" "" "" ""
    40 "GAFFNEY 3 1"  138.00000000000000000000 "NO " 0.00000000000000000000 0.00000000000000000000 1.03743462726940550000 -37.68085418162726090000 1.00000000000000000000      1      3      2      1 17    35.110000   -81.710000 "YES" "Default" "NO " "" "" "" "" "" "" "" "" "" "" "BusbarSection" 0 "" "" "" "" ""
    41 "GAFFNEY 3 2"  138.00000000000000000000 "NO " 0.00000000000000000000 0.00000000000000000000 1.03689864902718054000 -37.74702871085860070000 1.00000000000000000000      1      3      2      1 17    35.110000   -81.710000 "YES" "Default" "NO " "" "" "" "" "" "" "" "" "" "" "BusbarSection" 0 "" "" "" "" ""
    42 "CLARKS HILL 2 0" 138.00000000000000000000 "NO " 0.00000000000000000000 0.00000000000000000000 1.04466619086235046000 -43.80997644441568180000 1.00000000000000000000      1      5      1      1 18    33.640000   -82.110000 "YES" "Default" "NO " "" "" "" "" "" "" "" "" "" "" "BusbarSection" 0 "" "" "" "" ""
    43 "CLARKS HILL 2 1" 138.00000000000000000000 "NO " 0.00000000000000000000 0.00000000000000000000 1.04462546843092219000 -43.81481331728450360000 1.00000000000000000000      1      5      1      1 18    33.640000   -82.110000 "YES" "Default" "NO " "" "" "" "" "" "" "" "" "" "" "BusbarSection" 0 "" "" "" "" ""
    44 "JENKINSVILLE 0" 138.00000000000000000000 "NO " 0.00000000000000000000 0.00000000000000000000 1.02754309407401423000 -43.21422687128561080000 1.00000000000000000000      1      6      1      1 19    34.290000   -81.300000 "YES" "Default" "NO " "" "" "" "" "" "" "" "" "" "" "BusbarSection" 0 "" "" "" "" ""
    45 "JENKINSVILLE 1" 138.00000000000000000000 "NO " 0.00000000000000000000 0.00000000000000000000 1.02751979902489854000 -43.21710936404534210000 1.00000000000000000000      1      6      1      1 19    34.290000   -81.300000 "YES" "Default" "NO " "" "" "" "" "" "" "" "" "" "" "BusbarSection" 0 "" "" "" "" ""
    46 "WOODRUFF 0"   138.00000000000000000000 "NO " 0.00000000000000000000 0.00000000000000000000 1.02373838740948564000 -39.83155201612363070000 1.00000000000000000000      1      3      2      1 20    34.760000   -82.040000 "YES" "Default" "NO " "" "" "" "" "" "" "" "" "" "" "BusbarSection" 0 "" "" "" "" ""
    47 "WOODRUFF 1"   138.00000000000000000000 "NO " 0.00000000000000000000 0.00000000000000000000 1.02336934488725917000 -39.87617253978675080000 1.00000000000000000000      1      3      2      1 20    34.760000   -82.040000 "YES" "Default" "NO " "" "" "" "" "" "" "" "" "" "" "BusbarSection" 0 "" "" "" "" ""
    48 "IVA 0"        138.00000000000000000000 "NO " 0.00000000000000000000 0.00000000000000000000 1.05045199663085764000 -43.10181300403787220000 1.00000000000000000000      1      5      2      1 21    34.260000   -82.610000 "YES" "Default" "NO " "" "" "" "" "" "" "" "" "" "" "BusbarSection" 0 "" "" "" "" ""
    49 "IVA 1"        13.80000019073486330000 "NO " 0.00000000000000000000 0.00000000000000000000 1.05019039607269793000 -42.91265745613082320000 1.00000000000000000000      1      5      2      1 21    34.260000   -82.610000 "YES" "Default" "NO " "" "" "" "" "" "" "" "" "" "" "BusbarSection" 0 "" "" "" "" ""
    50 "IVA 2"        13.80000019073486330000 "NO " 0.00000000000000000000 0.00000000000000000000 1.05012708646435793000 -42.87975515962882160000 1.00000000000000000000      1      5      2      1 21    34.260000   -82.610000 "YES" "Default" "NO " "" "" "" "" "" "" "" "" "" "" "BusbarSection" 0 "" "" "" "" ""
    51 "IVA 3"        138.00000000000000000000 "NO " 0.00000000000000000000 0.00000000000000000000 1.05044816626947202000 -43.10225927079523700000 1.00000000000000000000      1      5      2      1 21    34.260000   -82.610000 "YES" "Default" "NO " "" "" "" "" "" "" "" "" "" "" "BusbarSection" 0 "" "" "" "" ""
    52 "IVA 4"        138.00000000000000000000 "NO " 0.00000000000000000000 0.00000000000000000000 1.05021821265208293000 -43.12860567057855120000 1.00000000000000000000      1      5      2      1 21    34.260000   -82.610000 "YES" "Default" "NO " "" "" "" "" "" "" "" "" "" "" "BusbarSection" 0 "" "" "" "" ""
    53 "CAYCE 0"      138.00000000000000000000 "NO " 0.00000000000000000000 0.00000000000000000000 1.02552392926220026000 -45.35545246301870040000 1.00000000000000000000      1      6      1      1 22    33.950000   -81.060000 "YES" "Default" "NO " "" "" "" "" "" "" "" "" "" "" "BusbarSection" 0 "" "" "" "" ""
    54 "CAYCE 1"      138.00000000000000000000 "NO " 0.00000000000000000000 0.00000000000000000000 1.02516510025246310000 -45.39399939925078090000 1.00000000000000000000      1      6      1      1 22    33.950000   -81.060000 "YES" "Default" "NO " "" "" "" "" "" "" "" "" "" "" "BusbarSection" 0 "" "" "" "" ""
    55 "TROY 0"       138.00000000000000000000 "NO " 0.00000000000000000000 0.00000000000000000000 1.04562010541103589000 -42.31363341258440870000 1.00000000000000000000      1      5      2      1 23    33.970000   -82.080000 "YES" "Default" "NO " "" "" "" "" "" "" "" "" "" "" "BusbarSection" 0 "" "" "" "" ""
    56 "TROY 1"       138.00000000000000000000 "NO " 0.00000000000000000000 0.00000000000000000000 1.04559730989356359000 -42.31620672259666800000 1.00000000000000000000      1      5      2      1 23    33.970000   -82.080000 "YES" "Default" "NO " "" "" "" "" "" "" "" "" "" "" "BusbarSection" 0 "" "" "" "" ""
    57 "SIMPSONVILLE 2 0" 345.00000000000000000000 "NO " 0.00000000000000000000 0.00000000000000000000 1.04381082243909185000 -37.52057450965022410000 1.00000000000000000000      1      2      2      1 24    34.770000   -82.230000 "YES" "Default" "NO " "" "" "" "" "" "" "" "" "" "" "BusbarSection" 0 "" "" "" "" ""
    58 "SIMPSONVILLE 2 1" 138.00000000000000000000 "NO " 0.00000000000000000000 0.00000000000000000000 1.04574705298540049000 -39.07051005115283720000 1.00000000000000000000      1      2      2      1 24    34.770000   -82.230000 "YES" "Default" "NO " "" "" "" "" "" "" "" "" "" "" "BusbarSection" 0 "" "" "" "" ""
    59 "SIMPSONVILLE 2 2" 138.00000000000000000000 "NO " 0.00000000000000000000 0.00000000000000000000 1.04448568066991943000 -39.22461702531460050000 1.00000000000000000000      1      2      2      1 24    34.770000   -82.230000 "YES" "Default" "NO " "" "" "" "" "" "" "" "" "" "" "BusbarSection" 0 "" "" "" "" ""
    60 "MAYO 0"       138.00000000000000000000 "NO " 0.00000000000000000000 0.00000000000000000000 1.03592163961323025000 -37.97304284251791270000 1.00000000000000000000      1      3      2      1 25    35.080000   -81.860000 "YES" "Default" "NO " "" "" "" "" "" "" "" "" "" "" "BusbarSection" 0 "" "" "" "" ""
    61 "MAYO 1"       138.00000000000000000000 "NO " 0.00000000000000000000 0.00000000000000000000 1.03591999114695188000 -37.97325273828192140000 1.00000000000000000000      1      3      2      1 25    35.080000   -81.860000 "YES" "Default" "NO " "" "" "" "" "" "" "" "" "" "" "BusbarSection" 0 "" "" "" "" ""
    62 "BELTON 2 0"   138.00000000000000000000 "NO " 0.00000000000000000000 0.00000000000000000000 1.02319153445747757000 -45.75318534244919990000 1.00000000000000000000      1      6      2      1 26    34.100000   -80.790000 "YES" "Default" "NO " "" "" "" "" "" "" "" "" "" "" "BusbarSection" 0 "" "" "" "" ""
    63 "BELTON 2 1"   13.80000019073486330000 "NO " 0.00000000000000000000 0.00000000000000000000 1.02319153445747757000 -45.75318534244919990000 1.00000000000000000000      1      6      2      1 26    34.100000   -80.790000 "YES" "Default" "NO " "" "" "" "" "" "" "" "" "" "" "BusbarSection" 0 "" "" "" "" ""
    64 "BELTON 2 2"   138.00000000000000000000 "NO " 0.00000000000000000000 0.00000000000000000000 1.02282321328408177000 -45.79479583522705610000 1.00000000000000000000      1      6      2      1 26    34.100000   -80.790000 "YES" "Default" "NO " "" "" "" "" "" "" "" "" "" "" "BusbarSection" 0 "" "" "" "" ""
    65 "BRADLEY 0"    345.00000000000000000000 "NO " 0.00000000000000000000 0.00000000000000000000 1.04598135602052578000 -40.52023418982791720000 1.00000000000000000000      1      5      2      1 27    34.040000   -82.230000 "YES" "Default" "NO " "" "" "" "" "" "" "" "" "" "" "BusbarSection" 0 "" "" "" "" ""
    66 "BRADLEY 1"    138.00000000000000000000 "NO " 0.00000000000000000000 0.00000000000000000000 1.04637740865146989000 -41.61522150109213670000 1.00000000000000000000      1      5      2      1 27    34.040000   -82.230000 "YES" "Default" "NO " "" "" "" "" "" "" "" "" "" "" "BusbarSection" 0 "" "" "" "" ""
    67 "BRADLEY 2"    138.00000000000000000000 "NO " 0.00000000000000000000 0.00000000000000000000 1.04633020017031475000 -41.62050426377709300000 1.00000000000000000000      1      5      2      1 27    34.040000   -82.230000 "YES" "Default" "NO " "" "" "" "" "" "" "" "" "" "" "BusbarSection" 0 "" "" "" "" ""
    68 "ENOREE 0"     138.00000000000000000000 "NO " 0.00000000000000000000 0.00000000000000000000 1.05421488010482411000 -40.47678685665597700000 1.00000000000000000000      1      3      2      1 28    34.650000   -81.900000 "YES" "Default" "NO " "" "" "" "" "" "" "" "" "" "" "BusbarSection" 0 "" "" "" "" ""
    69 "ENOREE 1"     138.00000000000000000000 "NO " 0.00000000000000000000 0.00000000000000000000 1.05405549115402497000 -40.49585183348110460000 1.00000000000000000000      1      3      2      1 28    34.650000   -81.900000 "YES" "Default" "NO " "" "" "" "" "" "" "" "" "" "" "BusbarSection" 0 "" "" "" "" ""
    70 "HONEA PATH 2 0" 138.00000000000000000000 "NO " 0.00000000000000000000 0.00000000000000000000 1.03941839224576671000 -41.37427997353029240000 1.00000000000000000000      1      2      2      1 29    34.530000   -82.370000 "YES" "Default" "NO " "" "" "" "" "" "" "" "" "" "" "BusbarSection" 0 "" "" "" "" ""
    71 "HONEA PATH 2 1" 13.80000019073486330000 "NO " 0.00000000000000000000 0.00000000000000000000 1.03999996185303489000 -41.34561766117541030000 1.00000000000000000000      1      2      2      1 29    34.530000   -82.370000 "YES" "Default" "NO " "" "" "" "" "" "" "" "" "" "" "BusbarSection" 0 "" "" "" "" ""
    72 "HONEA PATH 2 2" 13.80000019073486330000 "NO " 0.00000000000000000000 0.00000000000000000000 1.03999996185303512000 -41.32606739460462820000 1.00000000000000000000      1      2      2      1 29    34.530000   -82.370000 "YES" "Default" "NO " "" "" "" "" "" "" "" "" "" "" "BusbarSection" 0 "" "" "" "" ""
    73 "HONEA PATH 2 3" 13.80000019073486330000 "NO " 0.00000000000000000000 0.00000000000000000000 1.03999996185303778000 -41.30772718319492750000 1.00000000000000000000      1      2      2      1 29    34.530000   -82.370000 "YES" "Default" "NO " "" "" "" "" "" "" "" "" "" "" "BusbarSection" 0 "" "" "" "" ""
    74 "SPRINGFIELD 0" 138.00000000000000000000 "NO " 0.00000000000000000000 0.00000000000000000000 1.05047999422876104000 -46.46928823580088160000 1.00000000000000000000      1      6      1      1 30    33.510000   -81.300000 "YES" "Default" "NO " "" "" "" "" "" "" "" "" "" "" "BusbarSection" 0 "" "" "" "" ""
    75 "SPRINGFIELD 1" 138.00000000000000000000 "NO " 0.00000000000000000000 0.00000000000000000000 1.05042747423801752000 -46.47547034340514220000 1.00000000000000000000      1      6      1      1 30    33.510000   -81.300000 "YES" "Default" "NO " "" "" "" "" "" "" "" "" "" "" "BusbarSection" 0 "" "" "" "" ""
    76 "EDGEMOOR 0"   138.00000000000000000000 "NO " 0.00000000000000000000 0.00000000000000000000 1.02193452294017928000 -29.47481085387858710000 1.00000000000000000000      1      4      2      1 31    34.800000   -80.980000 "YES" "Default" "NO " "" "" "" "" "" "" "" "" "" "" "BusbarSection" 0 "" "" "" "" ""
    77 "EDGEMOOR 1"   138.00000000000000000000 "NO " 0.00000000000000000000 0.00000000000000000000 1.02186155515702448000 -29.48291543404269180000 1.00000000000000000000      1      4      2      1 31    34.800000   -80.980000 "YES" "Default" "NO " "" "" "" "" "" "" "" "" "" "" "BusbarSection" 0 "" "" "" "" ""
    78 "NEWRY 0"      138.00000000000000000000 "NO " 0.00000000000000000000 0.00000000000000000000 1.03943899507928506000 -35.69745014584184870000 1.00000000000000000000      1      1      2      1 32    34.730000   -82.910000 "YES" "Default" "NO " "" "" "" "" "" "" "" "" "" "" "BusbarSection" 0 "" "" "" "" ""
    79 "NEWRY 1"      138.00000000000000000000 "NO " 0.00000000000000000000 0.00000000000000000000 1.03943537025015731000 -35.69786570703006840000 1.00000000000000000000      1      1      2      1 32    34.730000   -82.910000 "YES" "Default" "NO " "" "" "" "" "" "" "" "" "" "" "BusbarSection" 0 "" "" "" "" ""
    80 "CLARKS HILL 1 0" 345.00000000000000000000 "NO " 0.00000000000000000000 0.00000000000000000000 1.04481693844169454000 -41.53002425039578330000 1.00000000000000000000      1      5      1      1 33    33.660000   -82.200000 "YES" "Default" "NO " "" "" "" "" "" "" "" "" "" "" "BusbarSection" 0 "" "" "" "" ""
    81 "CLARKS HILL 1 1" 138.00000000000000000000 "NO " 0.00000000000000000000 0.00000000000000000000 1.04523870160927856000 -43.16074298267553640000 1.00000000000000000000      1      5      1      1 33    33.660000   -82.200000 "YES" "Default" "NO " "" "" "" "" "" "" "" "" "" "" "BusbarSection" 0 "" "" "" "" ""
    82 "CLARKS HILL 1 2" 13.80000019073486330000 "NO " 0.00000000000000000000 0.00000000000000000000 1.03999996185303845000 -39.69051489136963080000 1.00000000000000000000      1      5      1      1 33    33.660000   -82.200000 "YES" "Default" "NO " "" "" "" "" "" "" "" "" "" "" "BusbarSection" 0 "" "" "" "" ""
    83 "NEWBERRY 0"   138.00000000000000000000 "NO " 0.00000000000000000000 0.00000000000000000000 1.02608118557040950000 -45.70910869527716610000 1.00000000000000000000      1      5      1      1 34    34.310000   -81.630000 "YES" "Default" "NO " "" "" "" "" "" "" "" "" "" "" "BusbarSection" 0 "" "" "" "" ""
    84 "NEWBERRY 1"   138.00000000000000000000 "NO " 0.00000000000000000000 0.00000000000000000000 1.02540980606312426000 -45.79002465713373480000 1.00000000000000000000      1      5      1      1 34    34.310000   -81.630000 "YES" "Default" "NO " "" "" "" "" "" "" "" "" "" "" "BusbarSection" 0 "" "" "" "" ""
    85 "AIKEN 3 0"    138.00000000000000000000 "NO " 0.00000000000000000000 0.00000000000000000000 1.04903842694576799000 -45.80771737540554510000 1.00000000000000000000      1      5      1      1 35    33.650000   -81.600000 "YES" "Default" "NO " "" "" "" "" "" "" "" "" "" "" "BusbarSection" 0 "" "" "" "" ""
    86 "AIKEN 3 1"    138.00000000000000000000 "NO " 0.00000000000000000000 0.00000000000000000000 1.04884122943048252000 -45.83142312920715260000 1.00000000000000000000      1      5      1      1 35    33.650000   -81.600000 "YES" "Default" "NO " "" "" "" "" "" "" "" "" "" "" "BusbarSection" 0 "" "" "" "" ""
    87 "ROCK HILL 3 0" 138.00000000000000000000 "NO " 0.00000000000000000000 0.00000000000000000000 1.02099836223446316000 -25.57515001554177660000 1.00000000000000000000      1      4      2      1 36    34.940000   -81.030000 "YES" "Default" "NO " "" "" "" "" "" "" "" "" "" "" "BusbarSection" 0 "" "" "" "" ""
    88 "ROCK HILL 3 1" 138.00000000000000000000 "NO " 0.00000000000000000000 0.00000000000000000000 1.02094331850155839000 -25.58182594516643250000 1.00000000000000000000      1      4      2      1 36    34.940000   -81.030000 "YES" "Default" "NO " "" "" "" "" "" "" "" "" "" "" "BusbarSection" 0 "" "" "" "" ""
    89 "CAMERON 0"    138.00000000000000000000 "NO " 0.00000000000000000000 0.00000000000000000000 1.02941161963891270000 -44.22734612243598920000 1.00000000000000000000      1      6      1      1 37    33.580000   -80.650000 "YES" "Default" "NO " "" "" "" "" "" "" "" "" "" "" "BusbarSection" 0 "" "" "" "" ""
    90 "CAMERON 1"    138.00000000000000000000 "NO " 0.00000000000000000000 0.00000000000000000000 1.02934751835791372000 -44.23571259008043910000 1.00000000000000000000      1      6      1      1 37    33.580000   -80.650000 "YES" "Default" "NO " "" "" "" "" "" "" "" "" "" "" "BusbarSection" 0 "" "" "" "" ""
    91 "SENECA 2 0"   138.00000000000000000000 "NO " 0.00000000000000000000 0.00000000000000000000 1.03419927575052850000 -34.81226263113793350000 1.00000000000000000000      1      1      2      1 38    34.640000   -82.940000 "YES" "Default" "NO " "" "" "" "" "" "" "" "" "" "" "BusbarSection" 0 "" "" "" "" ""
    92 "SENECA 2 1"   138.00000000000000000000 "NO " 0.00000000000000000000 0.00000000000000000000 1.03355955984085779000 -34.89206657146180390000 1.00000000000000000000      1      1      2      1 38    34.640000   -82.940000 "YES" "Default" "NO " "" "" "" "" "" "" "" "" "" "" "BusbarSection" 0 "" "" "" "" ""
    93 "BLAIR 0"      138.00000000000000000000 "NO " 0.00000000000000000000 0.00000000000000000000 1.02531771417645956000 -37.02600939021411360000 1.00000000000000000000      1      6      1      1 39    34.440000   -81.330000 "YES" "Default" "NO " "" "" "" "" "" "" "" "" "" "" "BusbarSection" 0 "" "" "" "" ""
    94 "BLAIR 1"      138.00000000000000000000 "NO " 0.00000000000000000000 0.00000000000000000000 1.02526707500272907000 -37.03230249768943590000 1.00000000000000000000      1      6      1      1 39    34.440000   -81.330000 "YES" "Default" "NO " "" "" "" "" "" "" "" "" "" "" "BusbarSection" 0 "" "" "" "" ""
    95 "WALHALLA 0"   138.00000000000000000000 "NO " 0.00000000000000000000 0.00000000000000000000 1.03451747651544279000 -34.96234380111132370000 1.00000000000000000000      1      1      2      1 40    34.780000   -83.080000 "YES" "Default" "NO " "" "" "" "" "" "" "" "" "" "" "BusbarSection" 0 "" "" "" "" ""
    96 "WALHALLA 1"   138.00000000000000000000 "NO " 0.00000000000000000000 0.00000000000000000000 1.03420654552996982000 -34.99968144277023900000 1.00000000000000000000      1      1      2      1 40    34.780000   -83.080000 "YES" "Default" "NO " "" "" "" "" "" "" "" "" "" "" "BusbarSection" 0 "" "" "" "" ""
    97 "ANDERSON 4 0" 138.00000000000000000000 "NO " 0.00000000000000000000 0.00000000000000000000 1.05944333013932801000 -42.70961025438794680000 1.00000000000000000000      1      1      2      1 41    34.460000   -82.760000 "YES" "Default" "NO " "" "" "" "" "" "" "" "" "" "" "BusbarSection" 0 "" "" "" "" ""
    98 "ANDERSON 4 1" 138.00000000000000000000 "NO " 0.00000000000000000000 0.00000000000000000000 1.05906531985132624000 -42.75760112520544000000 1.00000000000000000000      1      1      2      1 41    34.460000   -82.760000 "YES" "Default" "NO " "" "" "" "" "" "" "" "" "" "" "BusbarSection" 0 "" "" "" "" ""
    99 "PACOLET 0"    138.00000000000000000000 "NO " 0.00000000000000000000 0.00000000000000000000 1.03989234046292545000 -37.84391597155681100000 1.00000000000000000000      1      3      2      1 42    34.900000   -81.710000 "YES" "Default" "NO " "" "" "" "" "" "" "" "" "" "" "BusbarSection" 0 "" "" "" "" ""
   100 "PACOLET 1"    138.00000000000000000000 "NO " 0.00000000000000000000 0.00000000000000000000 1.03977284407150128000 -37.85801580822649020000 1.00000000000000000000      1      3      2      1 42    34.900000   -81.710000 "YES" "Default" "NO " "" "" "" "" "" "" "" "" "" "" "BusbarSection" 0 "" "" "" "" ""
   101 "PACOLET 2"    138.00000000000000000000 "NO " 0.00000000000000000000 0.00000000000000000000 1.03988462535448090000 -37.84475310929335730000 1.00000000000000000000      1      3      2      1 42    34.900000   -81.710000 "YES" "Default" "NO " "" "" "" "" "" "" "" "" "" "" "BusbarSection" 0 "" "" "" "" ""
   102 "ABBEVILLE 0"  138.00000000000000000000 "NO " 0.00000000000000000000 0.00000000000000000000 1.04475964285356437000 -43.39941072255783180000 1.00000000000000000000      1      5      2      1 43    34.180000   -82.430000 "YES" "Default" "NO " "" "" "" "" "" "" "" "" "" "" "BusbarSection" 0 "" "" "" "" ""
   103 "ABBEVILLE 1"  138.00000000000000000000 "NO " 0.00000000000000000000 0.00000000000000000000 1.04433432695382944000 -43.45189959449600540000 1.00000000000000000000      1      5      2      1 43    34.180000   -82.430000 "YES" "Default" "NO " "" "" "" "" "" "" "" "" "" "" "BusbarSection" 0 "" "" "" "" ""
   104 "AIKEN 2 0"    138.00000000000000000000 "NO " 0.00000000000000000000 0.00000000000000000000 1.04598979561207228000 -46.66918492246560390000 1.00000000000000000000      1      5      1      1 44    33.590000   -81.700000 "YES" "Default" "NO " "" "" "" "" "" "" "" "" "" "" "BusbarSection" 0 "" "" "" "" ""
   105 "AIKEN 2 1"    138.00000000000000000000 "NO " 0.00000000000000000000 0.00000000000000000000 1.04509530510309157000 -46.77359622040113150000 1.00000000000000000000      1      5      1      1 44    33.590000   -81.700000 "YES" "Default" "NO " "" "" "" "" "" "" "" "" "" "" "BusbarSection" 0 "" "" "" "" ""
   106 "JOHNSTON 0"   138.00000000000000000000 "NO " 0.00000000000000000000 0.00000000000000000000 1.04063795944663373000 -44.98857346929763420000 1.00000000000000000000      1      5      1      1 45    33.840000   -81.800000 "YES" "Default" "NO " "" "" "" "" "" "" "" "" "" "" "BusbarSection" 0 "" "" "" "" ""
   107 "JOHNSTON 1"   138.00000000000000000000 "NO " 0.00000000000000000000 0.00000000000000000000 1.04048523110700364000 -45.00652619570112730000 1.00000000000000000000      1      5      1      1 45    33.840000   -81.800000 "YES" "Default" "NO " "" "" "" "" "" "" "" "" "" "" "BusbarSection" 0 "" "" "" "" ""
   108 "SPARTANBURG 6 0" 138.00000000000000000000 "NO " 0.00000000000000000000 0.00000000000000000000 1.03496424120843122000 -38.30895129864144620000 1.00000000000000000000      1      3      2      1 46    34.890000   -81.920000 "YES" "Default" "NO " "" "" "" "" "" "" "" "" "" "" "BusbarSection" 0 "" "" "" "" ""
   109 "SPARTANBURG 6 1" 138.00000000000000000000 "NO " 0.00000000000000000000 0.00000000000000000000 1.03458063287419688000 -38.35013056542160110000 1.00000000000000000000      1      3      2      1 46    34.890000   -81.920000 "YES" "Default" "NO " "" "" "" "" "" "" "" "" "" "" "BusbarSection" 0 "" "" "" "" ""
   110 "GAFFNEY 2 0"  138.00000000000000000000 "NO " 0.00000000000000000000 0.00000000000000000000 1.04300694540157668000 -27.14941282350299190000 1.00000000000000000000      1      3      2      1 47    34.970000   -81.590000 "YES" "Default" "NO " "" "" "" "" "" "" "" "" "" "" "BusbarSection" 0 "" "" "" "" ""
   111 "GAFFNEY 2 1"  138.00000000000000000000 "NO " 0.00000000000000000000 0.00000000000000000000 1.04248942070571382000 -27.21623954923855140000 1.00000000000000000000      1      3      2      1 47    34.970000   -81.590000 "YES" "Default" "NO " "" "" "" "" "" "" "" "" "" "" "BusbarSection" 0 "" "" "" "" ""
   112 "LEESVILLE 0"  138.00000000000000000000 "NO " 0.00000000000000000000 0.00000000000000000000 1.03124043589393888000 -44.74718261653715960000 1.00000000000000000000      1      5      1      1 48    33.920000   -81.450000 "YES" "Default" "NO " "" "" "" "" "" "" "" "" "" "" "BusbarSection" 0 "" "" "" "" ""
   113 "LEESVILLE 1"  138.00000000000000000000 "NO " 0.00000000000000000000 0.00000000000000000000 1.03078274902292955000 -44.79791209365119900000 1.00000000000000000000      1      5      1      1 48    33.920000   -81.450000 "YES" "Default" "NO " "" "" "" "" "" "" "" "" "" "" "BusbarSection" 0 "" "" "" "" ""
   114 "LANGLEY 0"    138.00000000000000000000 "NO " 0.00000000000000000000 0.00000000000000000000 1.04387093216039628000 -45.85785047545147820000 1.00000000000000000000      1      5      1      1 49    33.510000   -81.860000 "YES" "Default" "NO " "" "" "" "" "" "" "" "" "" "" "BusbarSection" 0 "" "" "" "" ""
   115 "LANGLEY 1"    138.00000000000000000000 "NO " 0.00000000000000000000 0.00000000000000000000 1.04382372007179614000 -45.86380991741538790000 1.00000000000000000000      1      5      1      1 49    33.510000   -81.860000 "YES" "Default" "NO " "" "" "" "" "" "" "" "" "" "" "BusbarSection" 0 "" "" "" "" ""
   116 "LANGLEY 2"    138.00000000000000000000 "NO " 0.00000000000000000000 0.00000000000000000000 1.04384177392009847000 -45.86155667898445640000 1.00000000000000000000      1      5      1      1 49    33.510000   -81.860000 "YES" "Default" "NO " "" "" "" "" "" "" "" "" "" "" "BusbarSection" 0 "" "" "" "" ""
   117 "DONALDS 0"    138.00000000000000000000 "NO " 0.00000000000000000000 0.00000000000000000000 1.04161197346119683000 -41.35310771130288290000 1.00000000000000000000      1      5      2      1 50    34.360000   -82.340000 "YES" "Default" "NO " "" "" "" "" "" "" "" "" "" "" "BusbarSection" 0 "" "" "" "" ""
...